Circuit: * C:\users\lemme\My Documents\elp305\project2\Chargers_Spice\Charger_Spice\Charger_7.2V.asc

Direct Newton iteration failed to find .op point.  (Use ".option noopiter" to skip.)
Starting Gmin stepping
Gmin = 10
Gmin = 1.07374
Gmin = 0.115292
Gmin = 0.0123794
Gmin = 0.00132923
Gmin = 0.000142725
Gmin = 1.5325e-005
Gmin = 1.6455e-006
Gmin = 1.76685e-007
Gmin = 1.89714e-008
Gmin = 2.03704e-009
Gmin = 2.18725e-010
Gmin = 2.34854e-011
Gmin = 2.52173e-012
Gmin = 2.70769e-013
Gmin = 0
Gmin stepping succeeded in finding the operating point.


Date: Thu Apr 08 15:30:31 2021
Total elapsed time: 0.396 seconds.

tnom = 27
temp = 27
method = modified trap
totiter = 3512
traniter = 2898
tranpoints = 1260
accept = 1180
rejected = 80
matrix size = 90
fillins = 140
solver = Normal
Thread vector: 12.5/8.0[4] 19.0/7.5[4] 8.3/6.0[4] 0.6/3.3[1]  2592/500
Matrix Compiler1: 23.29 KB object code size  8.5/5.9/[3.0]
Matrix Compiler2: 12.10 KB object code size  3.1/2.3/[0.9]

